  8
no_name:-2402.603611093783
Li    -1.05156     0.85920     0.57380
Li     1.65907     0.93570    -0.32068
S      0.86382     0.89211     1.99758
S      1.05913    -1.18003     1.61021
S     -1.39254    -1.51631     0.18164
S     -0.38186    -1.09938    -1.50005
S     -0.25799     0.99812    -1.74438
S      2.07995    -1.44703    -0.09544
