  7
no_name:-2004.678565447694
Li    -1.37115     1.22534     0.35446
Li     1.04480     0.95208    -0.99566
S      0.75264     0.84403     1.38212
S      0.30274    -1.22182     1.20438
S     -1.38654    -1.30630    -0.02576
S     -0.68041    -0.58614    -1.97946
S     -1.03093     1.50763    -1.99201
