  7
no_name:-5923.131056598951
Ga     2.35690    -0.56695     1.81384
Ga    -1.56005     1.96573    -1.20325
Ga    -1.87290    -0.60509    -1.70252
B     -0.21167    -0.57550    -0.53916
B      0.91394    -0.03280     0.50179
B     -0.04920     0.98309    -0.24139
O      3.49241    -1.01017     2.91950
  7
no_name:-5923.269617096785
Ga     2.27348    -0.61877    -0.29755
Ga     1.11250     2.13519    -1.33513
Ga    -1.49929    -1.92272    -0.23003
B      0.02899    -0.49080    -0.70536
B      0.36098     0.62183     0.67573
B     -0.54965     0.94105    -0.64853
O      1.31804     0.54042     1.48356
  7
no_name:-5923.136777727316
Ga     1.68574    -0.74031     2.00836
Ga     0.16611     1.46193     0.56824
Ga    -1.81438     0.33167    -2.33494
B     -0.17652    -1.64290    -0.83227
B      0.56235    -1.03790     0.35581
B     -0.43594    -0.12211    -0.73634
O      2.59072    -0.60669     3.37806
  7
no_name:-5923.267382824893
Ga     0.61717    -1.47595     1.81741
Ga    -0.47923     2.96835     0.09374
Ga    -0.08373    -1.49298    -1.99264
B      0.04005    -0.60442    -0.04973
B      0.50964     0.86050    -0.10491
B     -1.19422     0.51498     0.13326
O     -2.16625     1.28335     0.27102
  7
no_name:-5923.279867939699
Ga     1.19649     0.70800     2.38880
Ga    -0.31230     1.93348     0.57013
Ga    -0.77924    -0.98322    -2.36831
B      0.66351    -1.60022    -0.36959
B      0.86326    -0.47184     0.73499
B     -0.05175     0.14408    -0.39181

