 11
no_name:-1193.373259033202
B     -0.44830     1.95949     0.57470
B      0.69679     0.72119     0.33247
B     -0.35893     1.31434    -0.85183
B      0.43055    -0.09345    -1.11785
B     -0.03267     1.65616     2.05833
B      1.14815    -0.84132     0.20913
Al    -1.44650    -0.32708     0.43051
Al     0.41117    -0.67405     2.25095
Al    -1.28607    -0.93398    -2.13228
Al     0.73026    -2.29596    -1.20006
O      0.31179     1.01090     3.11770
 11
no_name:-1193.316019697855
B     -0.28643     2.14969     0.46850
B      0.67331     0.71099     0.40473
B     -0.56525     1.18009    -0.75846
B      0.38610    -0.24349    -0.92553
B      0.29465     1.63642     1.81451
B      0.98817    -0.98430     0.39333
Al    -1.66725    -0.51031     0.39409
Al     0.19619    -0.36535     2.33755
Al    -1.41813    -0.49384    -2.12162
Al     0.28287    -2.33522    -1.04818
O     -1.45443    -0.88539     2.06094
 11
no_name:-1193.331453178756
B     -0.45317     1.59144     0.57550
B      1.09486     1.24524     0.01865
B     -0.44063     1.04854    -0.94227
B      1.09732     0.34157    -1.44999
B      0.45115     0.67733     1.55456
B      0.08623    -0.24466     0.12399
Al    -2.14650     0.16220     0.67876
Al     1.20738    -1.17096     1.85505
Al    -0.65438    -0.71934    -2.10068
Al     0.90329    -2.15279    -0.57390
O      2.15359     1.07864    -0.92784
 11
no_name:-1193.351481956624
B     -0.07176     1.60772     0.05671
B      1.08371     0.55589     0.72780
B     -0.51088     1.87594    -1.46193
B      0.33538    -0.03804    -0.63944
B     -0.01923     1.33536     1.66057
B      1.33853    -1.01590     0.26790
Al    -1.58478    -0.16172     0.57030
Al     0.37821    -0.84027     2.19293
Al    -0.98009    -0.38026    -2.44271
Al     0.86868    -2.09295    -1.45890
O     -0.94096     1.57739    -2.61376
 11
no_name:-1193.255887763555
B     -0.41265     1.88956     0.59403
B      0.74967     0.60188     0.30046
B     -0.39336     1.22844    -0.83410
B      0.53231    -0.03523    -1.24471
B      0.01912     1.10068     1.85875
B      0.95300    -1.04910    -0.04364
Al    -1.45284    -0.31124     0.52845
Al     0.74597    -0.78141     2.10341
Al    -1.33537    -0.75511    -2.07160
Al     0.77663    -2.36737    -1.64850
O      1.64447    -1.77685     3.16283
 11
no_name:-1193.379981178516
B     -1.07694     1.80169    -0.37146
B      0.25833     0.94622     0.32254
B      0.15647     1.45323    -1.28651
B      1.11878     0.22261    -0.93854
B     -1.59976     1.56213     1.08059
B      0.90886    -0.53763     0.53575
Al    -0.84199    -0.46872     1.94231
Al    -0.02337    -2.59840     1.00330
Al    -1.14163    -0.51177    -0.79676
Al     1.27430    -1.90053    -1.12511
O     -1.83119     1.05225     2.25554
 11
no_name:-1193.342754204588
B     -0.54675     1.84816     0.23460
B      0.77302     0.72003     0.49866
B      0.14372     1.23637    -1.03091
B      1.02578    -0.06672    -0.97145
B     -0.50014     1.15946     1.64644
B      1.19110    -0.89477     0.55237
Al    -1.03332    -0.44239     0.17068
Al     0.56459    -0.33485     2.55354
Al    -1.63856    -2.34403    -1.67615
Al     1.12321    -2.19407    -0.93495
O     -0.04881    -3.06510    -1.81104

