 11
no_name:-8357.399389468337
B     -1.40606    -0.72486    -1.15994
Ga    -0.36284     1.37337     0.26667
Ga     2.30079     1.53178     0.83775
B      0.54233    -0.58562    -1.47063
Ga    -2.46297    -2.00751     1.54171
Al     0.10922    -0.65269     2.05191
B     -0.55771     0.42840    -1.85882
Al     1.84411    -1.32960    -0.07159
B      2.10095    -0.42166     1.65730
Ga    -0.88381     0.78496    -3.98887
O     -2.11033    -1.52655    -0.48699
 11
no_name:-8357.380435219966
B     -1.06003    -1.03225    -0.10412
Ga     1.19982     1.52779    -0.10112
Ga     2.99748     1.12459     1.76779
B      0.31193    -0.80043    -1.17863
Ga    -1.99555     1.04338     0.95580
Al     0.32363    -0.69223     1.40893
B     -1.19280    -0.50780    -1.56555
Al     2.17271    -1.38511    -0.50814
B      2.39936    -0.81874     1.38081
Ga    -0.88099     1.53365    -1.84030
O     -0.00109     1.07405     1.46654
 11
no_name:-8357.362128603982
B     -1.89893    -1.42155     0.17930
Ga     0.93031     1.34480    -1.47315
Ga     0.74868     2.38388     1.06609
B      0.67141    -0.82051    -1.30134
Ga    -4.03373    -1.91291     0.51873
Al    -0.11313    -0.41986     0.96658
B     -0.77115    -1.34055    -0.89862
Al     2.47516    -0.87576    -0.31843
B      1.80564     0.44311     1.01126
Ga    -2.76850     0.73266     0.62880
O     -0.93577     1.19874     1.09319
 11
no_name:-8357.422965826729
B      0.40625    -1.77110     0.26408
Ga     0.74272     2.37885    -1.64299
Ga     2.58986     0.99685     1.71946
B     -0.47002    -0.01443    -1.82335
Ga    -1.13338     0.28746     0.53159
Al    -0.48612    -1.36245     2.80933
B     -0.23455    -1.40111    -1.15358
Al     1.39431    -0.19018    -0.65122
B      1.01605    -0.90795     1.41757
Ga    -1.95799     1.51486    -2.22430
O      2.06903     1.37516    -0.45435
 11
no_name:-8357.41899744038
B      0.00920    -1.37054     0.20597
Ga     0.19470     0.81792    -4.12472
Ga     1.15165     3.20050     2.60984
B     -0.15385     0.46474    -1.99673
Ga    -0.16098     0.17696     3.17929
Al    -2.45188    -2.24064     1.26905
B      0.34248    -0.79765    -1.25034
Al     0.06637     0.80179     0.16624
B     -0.85484    -0.85624     1.36392
Ga    -2.17582    -0.43474    -1.09683
O      0.56398     1.96194     1.33782
 11
no_name:-8357.460513229205
B     -0.81224    -0.31779    -0.35295
Ga     1.84195     2.40284     2.60445
Ga     3.98128    -0.15639     1.20586
B     -0.14698    -0.83031    -1.85617
Ga    -3.15050    -0.32270     0.14183
Al    -0.08841     0.57854     1.34562
B     -1.71464    -0.87920    -1.54814
Al     1.48124    -0.15564    -0.52697
B      2.02499     0.73494     1.23969
Ga    -2.50071    -1.69602    -3.46559
O      1.15192    -0.80369    -2.16507

