  7
no_name:-1224.484216508124
Li    -0.34000    -0.39492     1.40248
Li     0.13987    -1.07268    -1.11786
S      1.55137    -1.52289     0.80541
S     -0.84147     0.94395    -0.29330
Li     1.52467     0.77082    -0.07056
Li    -1.65523     2.33802    -1.63444
S      2.38496    -1.02387    -1.09135
