 10
no_name:-2418.783074694734
Li     0.06131    -0.02252     1.66840
Li    -1.29169    -1.54248    -0.20230
S      0.87488    -2.02914     0.65410
S     -2.14252     0.31956     1.03977
Li     2.00517    -0.25789    -0.20118
Li     0.09554     0.60902    -1.86073
S      0.66648    -1.64646    -1.43808
S      0.74004     1.80912     0.23776
S     -1.36026     1.94756     0.04950
S     -1.83455     1.81664    -1.88767
