  7
no_name:-1224.421673044005
Li    -0.45361    -0.06035     1.68252
Li    -0.09663    -1.54371    -0.57102
S      1.21774    -1.46603     1.23169
S     -0.50902     0.75029    -0.50212
Li     1.71865     0.37742     0.07969
Li    -1.67500     2.06641    -1.66866
S      2.22821    -2.94615     2.22160
