  7
no_name:-1224.48626622928
Li    -0.35419     0.32869     1.96860
Li    -0.31071    -1.36905    -0.44881
S      1.02430    -1.20805     1.26723
S     -0.53842     0.78008    -1.47179
Li     1.41425     0.60691     0.00294
Li    -1.71396     2.66287    -1.51162
S     -0.58425     2.01452     0.28856
