 11
no_name:-1436.906410319432
B      0.65588    -0.48625    -0.24714
B      0.96873     0.19572     1.22058
B      1.85894     0.61630    -0.13040
Al     0.25615     1.44061    -1.23904
Al    -1.37734    -0.65380    -0.88584
Al     1.51866     2.26024     1.03004
Al    -0.46839    -1.45886     1.41421
Al    -0.92840     1.25645     1.11106
O      2.13075     3.84291     1.47173
O      3.23896     2.99886     1.93280
H      3.96867     3.20932     1.32519
 11
no_name:-1436.900830655977
B     -0.78712    -1.33017     0.14174
B     -0.68538     0.34535     0.31507
B      0.66411    -0.60813     0.44862
Al     0.78794    -1.67404    -1.39944
Al    -2.16370    -0.29798    -1.05945
Al     1.25953     1.31265     0.14647
Al    -2.11987    -2.94613     0.69825
Al    -0.13757     0.81239    -1.94366
O     -3.82847    -0.94187    -1.00198
O     -3.77222    -2.14623    -0.21510
H     -4.66024    -2.53242    -0.29968
 11
no_name:-1436.881340238245
B     -0.31752    -1.20685     0.33686
B     -0.44629     0.27550     1.07262
B      1.06870    -0.37102     0.57943
Al     0.63687    -0.67378    -1.51931
Al    -1.74710     0.41859    -0.71937
Al     1.41026     1.23467     1.83226
Al    -2.30798    -1.17939     1.21321
Al     0.44102     1.80610    -0.38967
O      2.28944     1.36049     3.31187
O      2.38897     2.55892     4.05117
H      3.21627     2.40179     4.52739

