  9
no_name:-5998.810427471754
Ga     2.21185    -0.60546     2.08820
Ga     0.04111     2.47333     0.11658
Ga    -0.73572    -1.54404    -0.77215
B      0.80599    -0.92222     0.69947
B      1.12941     0.76032     1.04422
B      0.02592     0.30815    -0.04173
O      3.43956    -1.00119     3.33437
O      4.07860     0.25137     3.63066
H      3.87980     0.34494     4.57547
  9
no_name:-5999.033906019974
Ga    -1.47981     2.84793     1.27039
Ga    -2.39076    -1.18690    -2.13624
Ga    -0.24424    -0.56514    -0.57652
B     -1.21268     1.19361     0.12579
B     -2.92060     1.91311    -0.32148
B     -2.26942     0.60583    -0.90471
O     -3.20634     3.00339     0.31582
O     -1.26853     4.08414     2.51031
H     -0.40159     4.04158     2.93195
  9
no_name:-5998.810749336108
Ga     1.18945    -1.16732     1.69277
Ga    -1.24128     1.87431     0.09521
Ga     1.76354     0.13824    -2.30091
B      1.35672    -0.40331    -0.39425
B      0.16660     0.29230     0.45465
B      0.33150     0.83942    -1.07405
O      2.68335     0.06117    -3.83955
O      3.90858    -0.61837    -3.53094
H      3.87103    -1.35979    -4.15462

