  5
no_name:-367.552623225931
B     -0.61669     0.26154     0.72273
B      0.48559     0.84325    -0.17380
Al    -0.05560     2.12969     1.30636
O     -0.00120     3.55201     2.18519
H     -0.52275     4.07267     2.79284
  5
no_name:-367.590240182485
B     -0.73955     0.40682    -1.09854
B      0.55617     1.25070    -1.63680
Al     0.51384     0.40870     0.37019
O      1.22433     1.92553    -2.56842
H      0.95134     2.84398    -2.68682
  5
no_name:-367.552777515129
B     -1.35094     0.57209     0.12165
B     -0.31643     0.83311    -0.98307
Al    -1.80334     2.22226    -0.98133
O     -2.63607     3.58552    -1.48943
H     -3.49007     3.78413    -1.87195
  5
no_name:-367.552833985724
B     -0.77120    -0.49799     0.18742
B      0.56837     0.25198     0.16226
Al    -0.03526    -0.17456     2.05887
O      0.05595    -0.24065     3.72739
H     -0.27602     0.19218     4.51169
  5
no_name:-367.590342075585
B     -0.99913    -0.78061    -0.23496
B     -0.01448    -0.86582    -1.53877
Al     0.43082     0.46337     0.12561
O      0.33300    -1.37430    -2.71630
H     -0.00732    -0.90330    -3.48745

