 10
no_name:-1361.88515095825
B     -0.36952    -1.26078     1.18642
B      0.02558     0.32006     1.51816
B      0.66049    -0.44825     0.20728
Al    -1.28765    -0.92018    -0.68825
Al    -1.15506     1.56877     0.18577
Al     1.58655     1.55348     0.59807
Al    -2.03169    -0.26644     1.86618
Al     0.71942     0.58980    -1.65525
O     -3.22800    -0.40665     3.05109
H     -3.29069    -1.08199     3.72681
 10
no_name:-1361.884331042033
B     -0.21981    -1.37179     0.39288
B     -0.20565    -0.00094     1.30711
B      0.75047    -0.11456    -0.03010
Al    -0.11069    -1.28165    -1.67938
Al    -1.37659     1.75685     1.47045
Al     1.23408     1.71928     1.05803
Al    -2.06859    -0.43927     0.10943
Al    -0.45181     1.30867    -1.11153
O     -2.28870     2.76898     2.46960
H     -2.03807     3.57067     2.92930

