  4
no_name:-366.860788507148
B     -0.79685    -0.54769    -0.11742
B      0.40460    -0.38710    -1.09378
Al     0.57268     0.91475     0.56111
O      1.20545     2.10993     1.50028
  4
no_name:-366.933049953119
B     -1.13601    -0.93108    -0.06826
B      0.03632     0.09536     0.32826
Al     1.39438     1.27117     0.79170
O     -2.01418    -1.71114    -0.36700
  4
no_name:-366.997421944304
B      0.21046    -0.16943     0.45679
B      0.50610    -0.90465    -1.02006
Al    -0.76184     1.05180     2.03034
O      1.22363    -1.05341     0.11635
  4
no_name:-366.996227973523
B     -1.01361     0.18537    -0.37286
B      0.51947    -0.23095    -0.87548
Al     0.48724     0.80948     1.39519
O     -1.47422     0.71831     0.66687

