  9
no_name:-1361.248901424922
B     -0.40907    -1.07321     0.64696
B     -0.19047     0.55786     0.81635
B      1.06031    -0.38455     0.37147
Al     0.10629    -1.06903    -1.44621
Al    -2.03241     0.23294    -0.38618
Al     2.55444     0.53427    -0.72108
Al    -2.35209    -1.72098     1.23048
Al     0.27589     1.63690    -0.95134
O     -0.89388     0.50374    -1.82835
  9
no_name:-1361.278889225515
B     -0.26666    -1.12646     0.38602
B      0.61926    -0.08528     1.28838
B      0.88483    -0.24157    -0.36952
Al    -0.55333    -1.15163    -1.74735
Al    -1.17897     1.19485    -0.01849
Al     1.88364     1.71777     0.68206
Al    -2.04444    -0.90814     1.33148
Al     0.80549     1.29409    -1.80982
O      0.99075     0.88895     2.09335
  9
no_name:-1361.287393693624
B      0.08432    -1.34083     0.96766
B      0.26362     0.33629     0.62763
B      1.31889    -0.81712     0.07850
Al     0.30796    -1.16170    -1.75184
Al    -1.46698     0.60992    -0.77329
Al     2.04857     0.93912    -0.75663
Al    -2.02536    -0.63508     1.58702
Al     0.20209     2.42645     0.16479
O     -0.85546    -2.04574     1.54963
  9
no_name:-1361.268743515221
B     -0.01500    -1.35177     0.30798
B      0.22579     0.22310     0.86857
B      1.07948    -0.40696    -0.42392
Al    -0.65313    -1.01311    -1.71198
Al    -1.49467     1.18297    -0.05777
Al     1.90324     1.53610     0.57527
Al    -1.75479    -0.98590     1.28578
Al     0.61763     1.37725    -1.60416
O      1.79500     2.43995    -0.91916
  9
no_name:-1361.281519993881
B     -0.40457    -1.10604     0.31437
B      0.30139     0.40325     0.61540
B      1.16058    -0.80824    -0.07776
Al     0.60734    -0.70209    -2.10697
Al    -1.57069     1.28299     0.44737
Al     2.41977     0.84937    -0.00774
Al    -2.99568    -1.19673     1.07234
Al     0.40055     1.83081    -1.15132
O     -1.49138    -1.86723     0.38992
  9
no_name:-1361.203148724672
B     -0.45415    -1.23365    -0.09226
B      0.49120    -0.38216     1.05232
B      1.16807    -1.10422    -0.25658
Al     0.36363    -0.01124    -1.83513
Al    -2.13534    -0.17653    -0.91122
Al     2.19980     0.68665     0.16465
Al    -1.45688    -0.66128     1.76838
Al    -0.31340     1.51475     0.27430
O     -2.84775    -0.66547     2.58381

