  7
no_name:-658.961349613382
B     -0.43038    -0.80202    -1.42432
B     -1.19251     0.60577    -0.90120
B      0.81581    -1.22938    -0.50590
B     -0.35450    -0.34394     0.19087
Al    -0.42349     1.58675     1.01350
Al     1.71418    -0.19240     1.07237
O     -1.28194     0.02086    -2.15231
  7
no_name:-658.975444399233
B      0.50053    -0.53275    -0.28708
B     -0.51757     0.48845     0.50744
B     -0.03652    -2.10478    -0.58204
B     -1.04095    -0.97164     0.25702
Al    -0.22633     2.48504     1.01875
Al     1.62763     1.15791    -0.22793
O     -1.29874    -2.29126    -0.08009
  7
no_name:-658.96129268763
B      0.55435     0.22869    -1.26887
B     -0.56925    -0.14379    -0.07462
B      0.37259    -1.28256    -0.75244
B      0.12296     1.37673    -0.11617
Al    -0.71536     0.63757     1.87167
Al    -0.10782    -1.97622     1.16195
O      0.91360     1.57205    -1.23677
  7
no_name:-658.933576009332
B     -0.76163    -0.85990    -1.11139
B     -1.47854     0.56613    -0.28913
B      0.57350    -1.29200    -0.48495
B     -0.00776    -0.02066     0.30336
Al    -0.59961     1.68630     1.21915
Al     1.96607    -0.36489     0.88156
O     -1.92462    -0.17443    -1.36070
  7
no_name:-658.946221499604
B     -0.82471    -0.68752    -1.03496
B     -0.65654     0.61513    -0.18518
B      0.28727    -1.80400    -1.10583
B      0.62424    -0.50956    -0.18119
Al    -0.77510     2.47271     0.94661
Al     1.36557     0.85062     1.09442
O      0.76464     2.29171     1.76848
  7
no_name:-658.967063894458
B     -0.28044    -0.21083    -0.93064
B      0.11042     1.23664    -0.45319
B      0.37047    -1.46374    -0.23388
B     -0.67680    -1.00803     0.83501
Al    -1.36811     1.39551     1.05982
Al     1.83084     0.03642    -0.47193
O     -1.44568    -0.34358     1.63608
  7
no_name:-658.961294011787
B      0.50561     0.21361    -1.28168
B     -0.56808    -0.12882    -0.03430
B      0.33216    -1.28780    -0.73272
B      0.13023     1.38660    -0.13443
Al    -0.63230     0.69061     1.89963
Al    -0.08855    -1.94968     1.20860
O      0.87143     1.55523    -1.29313

