  4
no_name:-2049.074887703992
Ga     1.10429     0.13717     0.28675
B     -0.73434     0.18419    -0.70072
B     -0.90624    -0.01932     0.83786
O      2.78048     0.14423     0.46132
  4
no_name:-2049.074901281164
Ga     1.16865     0.21452    -0.40826
B     -0.91840     0.29031    -0.50138
B     -0.41025    -0.15423     0.90539
O      2.77265     0.33941    -0.91222
  4
no_name:-2049.261898190952
Ga     1.27094    -0.57610    -0.45742
B     -0.76124     0.74255    -0.62164
B     -0.44834     0.18810     1.08032
O     -1.45899     0.91563     0.53388
  4
no_name:-2049.074851726875
Ga     0.50413    -0.56990    -0.89913
B     -0.98217     0.71274    -0.17913
B     -0.19890     0.01863     0.98012
O      1.48437    -1.41416    -1.97519

