  7
no_name:-1614.994927086881
Li    -1.49809     0.43003     1.09592
Li    -0.34806    -1.23861    -1.30304
S      0.90562    -2.11522     0.43025
S     -0.82202     1.04926    -0.92852
Li     1.47300     0.29991    -0.37665
S      0.22330     1.72159     0.79522
S      1.87567    -1.88851    -1.31182
