  9
no_name:-2411.137619502038
Li    -0.71109     1.30526     0.79477
Li    -1.39357    -0.53611    -1.25483
S      1.37064     0.43800     1.67597
S     -0.33202     1.49448    -1.53089
Li     1.72212     0.96929    -0.63368
S      0.49684    -1.25353     0.94785
S     -1.51437    -0.96231     1.10044
S      0.89253    -1.23153    -1.07861
S      1.11317    -2.85695     1.75995
