  7
no_name:-1615.004940570129
Li    -1.62861     0.13568     1.12234
Li    -0.32191    -0.16286    -1.13208
S      1.35819    -1.14784     0.34233
S     -0.87805     1.91405    -0.28482
Li     1.18995     1.29733     0.61691
S     -0.49290    -1.92739     0.34491
S     -0.57906     1.97117     1.82150
