  7
no_name:-1224.486258785571
Li    -0.37694    -0.19823     1.64838
Li    -0.22304    -2.22402    -0.50652
S      1.13077    -1.67551     1.11163
S     -0.83630     1.19182    -0.24172
Li     1.27800    -0.03896    -0.42573
Li    -1.96764     1.54476    -2.11792
S     -0.74809    -0.28287    -1.79837
