  9
no_name:-2020.707800457198
Li    -0.12375     0.33270     1.70155
Li    -1.50770    -1.05320    -0.20079
S      0.62096    -1.66566     0.55917
S     -2.26219     0.85760     0.95853
Li     1.90332     0.09040    -0.12248
Li    -0.00303     1.22325    -1.51783
S      0.43741    -1.08051    -1.48927
S      0.85470     2.18682     0.52505
S     -1.18925     2.38256     0.05099
