  7
no_name:-1224.486220026699
Li    -0.67724    -0.09910     1.37868
Li    -0.63732    -1.80722    -0.64345
S      0.87767    -1.65935     0.92169
S     -0.35945     1.63064    -0.37102
Li     1.50233     0.15159    -0.11665
Li    -1.96750     2.12594    -1.81658
S     -1.93504     0.20292    -0.70108
