  7
no_name:-1224.48422255652
Li    -0.61672     0.12890     1.58841
Li    -0.63047    -1.36965    -0.45099
S      0.93125    -1.75573     1.37449
S     -0.30089     0.99086    -0.60808
Li     1.56636     0.01227     0.07836
Li    -1.75641     2.14763    -1.58361
S     -1.16693    -2.04406     1.61630
