  7
no_name:-1224.484210026723
Li    -0.18051    -0.31377     1.51287
Li    -0.79920    -1.36934    -0.83570
S      0.92609    -2.13126     0.69119
S     -0.70979     0.93819    -0.24138
Li     1.39688    -0.11340    -0.60486
Li    -1.43094     2.35639    -1.60835
S      1.20213    -2.18718    -1.42133
