  9
no_name:-8307.850021157392
Ga    -4.73667    -0.42813     1.71604
B      0.44873    -0.80177     0.30588
Al    -1.57342    -0.30021     0.11559
Al     2.62122     0.89182    -1.58098
Ga     0.18333     1.49657    -0.76629
Ga    -0.14508    -1.71913    -1.88310
B      1.65245     0.20162     0.22677
Ga     2.26576    -1.69419    -0.69875
O     -3.09761    -0.38973     0.85426
  9
no_name:-8307.867647454756
Ga    -2.15700    -0.31772    -0.03503
B      0.97254     0.89604     0.64968
Al    -0.55723     0.41098     2.09509
Al     0.58697     0.61323    -1.41092
Ga     1.39259     3.30573     0.31065
Ga    -0.51508    -1.83673    -1.60279
B      0.33524    -0.59711     0.40989
Ga     1.18626    -2.55960     0.35704
O      0.79362     1.76497     1.69518
  9
no_name:-8307.85837713285
Ga    -1.76272     1.31709    -2.62405
B      0.57212     0.07682    -0.28974
Al    -0.03618    -1.29213     1.19148
Al     0.49937     2.13034    -0.94358
Ga    -0.54352     1.42443     1.37941
Ga    -1.35627    -1.18361    -1.14689
B      0.08622     0.27077    -1.77974
Ga     1.22173    -3.23854     3.85480
O      0.48268    -2.37191     2.39580
  9
no_name:-8307.843640207073
Ga    -2.23865    -1.24956     0.29576
B     -0.55575    -0.01530     0.82187
Al    -0.19953     2.13200     0.83358
Al     0.88725     0.30539    -1.02007
Ga     1.25196     4.07029    -0.61340
Ga    -0.45177    -2.05344    -1.85688
B      0.18648    -1.22815     0.17328
Ga     2.20457    -2.24801    -0.52893
O      0.83662     2.05288    -0.74955
  9
no_name:-8307.852569437531
Ga    -1.52793    -0.78869     1.90069
B     -0.16113     0.01219     0.04092
Al    -0.80263     1.97730     0.72043
Al     0.81179     1.31304    -1.34052
Ga    -0.29247     4.72394    -0.13665
Ga     1.17353    -1.32283    -1.59265
B     -0.18189    -1.53921     0.16986
Ga     0.03629    -3.79138     0.03590
O      0.17504     2.84100    -0.66089
  9
no_name:-8307.83002535451
Ga    -1.97049     1.06699    -1.16122
B     -0.56689    -0.82083     1.42193
Al     1.31460    -0.89759     2.27174
Al     0.35397     1.01562     0.64014
Ga    -0.78875     4.27022    -0.31857
Ga     0.15872    -2.45259    -0.71215
B     -0.83948    -0.62154    -0.11001
Ga     2.38343    -0.71705    -0.12415
O     -0.35533     2.46768    -0.03760

