 11
no_name:-8792.586442151736
Al     2.25639     0.68308     0.08630
Ga     1.37300     0.03287    -2.63356
B     -1.30263     0.63878    -0.08959
Al    -0.32662    -1.28440    -0.43508
Al     0.54163    -0.20295     1.95663
B      0.17895     0.80839    -0.61026
Al    -0.10607     2.12353     1.09386
Ga    -2.72778     1.76291     1.21146
Ga    -2.01694    -0.74735     1.62522
Ga     1.27337    -3.26001    -2.99192
O      0.43964    -2.07137    -1.78594
 11
no_name:-8792.563203735279
Al     1.96283     0.18100    -0.25017
Ga     0.96500    -0.32713    -2.73811
B     -1.34997     0.70007    -0.00929
Al    -0.51751    -1.30587    -0.72563
Al     0.50195    -1.01815     1.85981
B      0.01521     0.76623    -0.79791
Al     0.22661     1.72221     1.16263
Ga    -2.57970     2.20929     1.13838
Ga    -2.35938    -0.55279     1.79163
Ga     2.10770    -2.58571    -1.62420
O     -0.54390    -2.04675     0.87746
 11
no_name:-8792.551457864212
Al     2.04979     0.15978     0.48789
Ga     1.18294    -0.39216    -1.82416
B     -1.38357     0.35304     0.46189
Al    -0.62654    -1.55300    -0.19094
Al     0.00045    -0.57405     2.15996
B     -0.07451     0.62062    -0.41354
Al     0.24729     1.88697     1.28901
Ga    -2.28139     2.37640     0.63454
Ga    -2.79209    -0.27281     2.20789
Ga     2.41682    -0.73952    -5.20522
O      1.69883    -0.57351    -3.51455
 11
no_name:-8792.549042878363
Al     2.11408     0.76117    -0.02858
Ga     2.07009     0.05389    -2.74497
B     -0.82810    -0.02128    -0.40873
Al     0.14834    -1.56263    -1.69435
Al     0.54794    -1.08191     0.85869
B      0.35990     0.51183    -1.37821
Al    -0.08293     2.15749    -0.01399
Ga    -2.17753     1.04388     0.76806
Ga    -4.94331     1.27827     3.06498
Ga     2.80355    -2.29640    -0.69165
O     -3.64401     1.07295     1.75919
 11
no_name:-8792.596241214296
Al     1.92881    -0.79126    -0.16524
Ga     1.47448     0.35710    -2.43761
B     -0.73278     0.52479     0.53104
Al    -0.75128    -0.92940    -1.09927
Al     0.71170    -0.16063     2.37095
B      0.39160     0.82702    -0.56054
Al     0.63007     2.20537     1.12018
Ga    -2.94754     0.45659     0.02479
Ga    -1.89816    -0.43148     2.36676
Ga     1.38670    -2.38036    -2.80945
O      1.97086    -1.00769     1.54149
 11
no_name:-8792.591631416504
Al     1.64828     0.61597     0.20729
Ga     1.44501    -0.09521    -2.45573
B     -0.99164    -0.25015     0.22643
Al    -0.35872    -1.70395    -1.25666
Al     0.74978    -1.63593     1.07661
B     -0.17154     0.38407    -1.06078
Al    -0.71467     1.73080     0.60800
Ga    -2.23289     4.71553     1.75876
Ga    -1.74186    -1.12161     2.13530
Ga     2.69229    -2.30820    -1.24981
O     -1.40699     3.19617     1.10434
 11
no_name:-8792.548062314629
Al     1.46619    -1.73201     0.65017
Ga     0.32578    -0.10677    -2.72577
B     -1.02427     0.14197     0.41272
Al    -1.11499    -1.97837     0.69928
Al     0.12668    -0.55194     2.66090
B      0.02163    -0.62832    -0.62230
Al     1.00087     0.91471     0.66908
Ga    -1.60595     1.40432    -1.34830
Ga    -2.24121     0.68513     2.27167
Ga     2.45330    -1.54899    -1.59566
O      2.02088    -0.73104    -3.14122

