  5
no_name:-2291.648043428079
B     -0.33017     0.26569    -0.23013
Ga    -0.88005     1.08997    -2.14263
B     -0.39090    -1.30171     0.27038
Al     0.58552     1.01540     1.46799
O     -0.41198    -2.45056     0.66677
  5
no_name:-2291.647858929032
B      0.72337     1.00435    -0.78026
Ga    -1.16998    -1.83934    -1.31140
B     -0.31538    -0.16407    -0.26173
Al    -0.09237     0.26050     1.75511
O      1.51345     1.86919    -1.10485

