  9
no_name:-4943.351853186382
Al     1.77330    -1.06397    -0.05472
Ga     2.11052     0.41176    -2.72225
B     -0.86538     0.39985     0.18491
Al    -1.01473    -1.71194    -0.23388
Al    -0.03639    -0.88002     1.99365
B     -0.38224     0.60570    -1.31818
Al     1.01855     1.23976     0.62450
Ga    -2.71781     0.38880     1.50609
O      0.03224     0.50345    -2.51925
  9
no_name:-4943.328238671166
Al     1.89559    -0.82658     0.10379
Ga     1.58703     1.29682    -2.01267
B     -0.91381     0.21129    -0.03175
Al    -0.58178    -2.01722    -0.26363
Al    -0.12893    -0.80473     2.01311
B      0.06494    -0.21399    -1.18806
Al     0.62713     1.48883     0.83975
Ga    -2.16149     1.50818     1.35109
O      2.18668     0.95914     0.16996
  9
no_name:-4943.354727884145
Al     2.14124    -0.85740    -0.70241
Ga     1.09755     1.11087    -2.27580
B     -1.42364    -0.34689     0.07643
Al     0.10670    -2.38378    -0.04472
Al    -0.45073    -0.82967     2.10858
B     -0.09542    -0.39392    -0.71688
Al     0.77305     1.13709     0.53077
Ga    -1.73364     1.89942     1.86466
O     -2.15983    -0.26546     1.16009
  9
no_name:-4943.328398039916
Al     1.87414    -0.50525    -0.33989
Ga     0.90400     1.39005    -2.49184
B     -1.06639     0.17097    -0.07606
Al    -0.42205    -2.01094    -0.21635
Al     0.13823    -0.53398     1.87365
B     -0.23281    -0.22384    -1.35121
Al     0.41964     1.71161     0.42561
Ga    -2.33018     1.58834     1.12657
O      1.92903     1.29443    -0.42722
  9
no_name:-4943.317362778706
Al     1.95675    -0.89122    -0.67183
Ga     1.56993     0.68143    -2.72684
B     -1.24348     0.00297     0.09675
Al    -0.31986    -1.95067    -0.05835
Al    -0.64567    -0.65973     2.16310
B     -0.10139    -0.10834    -1.17576
Al     0.69334     1.26173     0.59573
Ga    -2.37921     1.28021     1.81878
O     -1.07118     0.91085    -0.98626
  9
no_name:-4943.346289909446
Al     1.33109    -1.74084    -1.69240
Ga     2.20581     0.84282    -1.64231
B     -0.92803    -0.11772     0.29483
Al    -0.00558    -2.00985     0.61680
Al    -0.78353    -0.34500     2.47359
B      0.17304    -0.11503    -0.79936
Al     0.15087     1.78731     0.14906
Ga    -2.41136     1.61278     1.39050
O      0.99117    -2.92506    -0.47149
  9
no_name:-4943.330248985302
Al     1.91654    -0.75617    -0.04276
Ga     1.05627     0.06713    -2.80212
B     -1.05271    -0.03934    -0.07722
Al    -0.25220    -1.87638    -0.81487
Al    -0.24196    -1.26926     1.66675
B      0.21260     0.67061    -0.72652
Al     0.91317     1.23596     1.25916
Ga    -1.79474     1.57234     1.23788
O      1.40534    -1.70335    -1.51564

