  7
no_name:-2558.803083485398
B     -0.10823     0.25128     1.46193
B     -1.21338     1.02146     0.77911
Al     1.41204    -1.11310     1.35131
B     -1.75610     1.10578    -0.70038
Ga     2.36670    -2.15906    -1.04929
Al    -0.10571    -0.28322    -0.69751
O     -1.49921     0.61199    -1.83494
  7
no_name:-2558.691688060813
B     -0.24012     0.62590     1.34851
B     -1.69987     0.63712     0.55790
Al     1.27784    -0.72425     1.00567
B     -0.62637     1.34089    -0.50026
Ga     1.07815    -2.34922    -1.10700
Al     0.69414     0.24939    -1.64012
O     -0.07139     1.89996     0.69893
  7
no_name:-2558.803290355821
B     -0.96849     0.42432     2.16125
B     -1.13743     1.23984     0.81867
Al     0.17396    -0.58738     0.64227
B     -0.65079     1.06545    -0.60135
Ga     2.01776    -2.21062    -1.22206
Al     0.42732    -0.02695    -1.95950
O     -0.38101    -0.61879     2.56810
  7
no_name:-2558.815016402166
B      0.33445    -0.65803     0.22769
B     -0.69911     0.08429    -0.59465
Al     2.19501    -1.04157     1.34322
B     -0.68831     1.59352    -1.05269
Ga    -0.72956    -2.54583    -0.11302
Al     1.17521     1.33557     0.12531
O      0.07249     2.59342    -0.92753
  7
no_name:-2558.816712857429
B      0.39518    -0.46970     0.15439
B     -0.12877     0.93685     0.43636
Al     0.87124    -0.25600     2.22217
B     -0.98967     1.85081    -0.51294
Ga     1.03274    -2.52117    -0.59353
Al    -0.58365     0.01450    -1.68303
O     -1.47544     1.77833    -1.67670
  7
no_name:-2558.765939145356
B     -0.72924     0.79133     1.68645
B     -1.60009     1.64691     0.79940
Al     0.66983    -0.46368     1.18098
B     -0.64162     0.80762    -0.05828
Ga     2.69026    -2.12550    -1.56219
Al     0.62466    -0.25435    -1.50879
O      1.55613    -1.20636    -0.08788
  7
no_name:-2558.778526706844
B     -0.13090     0.46620     1.45351
B     -1.44735     1.64369     0.64903
Al     1.45523    -0.50433     0.81227
B     -0.07919     1.02796    -0.00445
Ga     0.44251    -2.27602    -1.04494
Al     0.85779     0.35642    -1.69440
O     -2.47194     2.11301     1.10943
  7
no_name:-2558.644229353707
B     -0.78933     0.49866     1.59787
B     -1.12041     1.79223     0.86584
Al     0.06119    -1.04513     0.74947
B     -0.47911     0.84074    -0.15995
Ga     1.12374    -2.34905    -1.19670
Al     0.28009    -0.05810    -1.90109
O      1.94662    -3.78360    -1.33349

