 11
no_name:-6675.238548966371
Al     0.28584     2.54764     1.50184
Al     1.36051    -1.05118     0.91203
Al     0.80702    -1.39370    -2.24356
B      1.04282     0.28874    -0.90250
Ga    -0.48959    -2.94249    -0.50276
Ga    -0.82981    -0.06506     2.05163
Ga    -2.49052    -0.98384    -0.02118
B     -0.20000     0.99692     0.00046
B      1.40048     1.68016    -0.18646
B     -0.39856    -0.51129    -0.57743
O      1.86475     2.67723     0.52019
 11
no_name:-6675.156050312706
Al     0.26627     2.39302     1.83923
Al     1.77712    -0.03377     0.51057
Al     0.72780    -1.45122    -1.50245
B      0.62646     0.75479    -1.19853
Ga    -0.38042    -3.18849     1.02863
Ga    -0.48360    -0.11526     1.94255
Ga    -2.73842    -0.93145    -0.14426
B     -0.48855     1.10966    -0.01578
B      0.98692     1.88664    -0.08252
B     -0.76594    -0.09695    -1.09069
O     -1.47601    -1.64133     1.50149
 11
no_name:-6675.219655233572
Al    -0.31333     2.49873     1.46349
Al     1.47057    -0.25107     1.07269
Al     0.79932    -1.21450    -2.39792
B      1.06576     0.70311    -1.10568
Ga     0.29447    -2.86618     0.06221
Ga    -0.98043    -0.13112     2.08694
Ga    -2.41826    -0.24117    -0.34446
B     -0.38569     0.89903    -0.05764
B      1.09227     1.69231     0.20243
B     -0.09379    -0.66755    -0.46893
O      1.51365     0.41139    -2.34711
 11
no_name:-6675.218751538993
Al    -0.48814     2.85450     0.94701
Al     0.90984    -0.95053     0.74061
Al     1.11603    -1.09167    -2.20225
B      0.77112     0.60402    -0.86496
Ga    -0.32505    -3.17048    -0.96397
Ga    -0.02092     0.84284     2.66941
Ga    -2.65149     0.01420     0.71055
B     -0.71747     0.91803    -0.04436
B      0.85503     1.21110     0.62595
B     -0.70094    -0.11249    -1.30399
O     -0.91620    -1.13699    -2.10013
 11
no_name:-6675.131523925839
Al     1.06967     3.33021     1.36776
Al     1.34899    -0.47136     0.70083
Al     1.21439    -0.86127    -2.00724
B      0.37395     0.73353    -0.89344
Ga     0.23533    -3.03709    -0.51376
Ga    -0.90671    -0.59506     2.01213
Ga    -2.56153    -1.49528    -0.25897
B     -0.91996     0.61245     0.11782
B      0.34656     1.61817     0.49373
B     -0.54767    -0.69400    -0.81688
O      1.73516     4.61544     2.05801
 11
no_name:-6675.156219315389
Al     0.18335     2.24000     1.86472
Al     1.84154    -0.01599     0.44614
Al     0.93060    -1.36323    -1.67478
B      0.70903     0.81727    -1.25664
Ga    -0.23728    -3.31019     0.71874
Ga    -0.46864    -0.29667     1.77117
Ga    -2.62636    -1.04122    -0.41226
B     -0.45722     1.04937    -0.09388
B      0.97956     1.89634    -0.06694
B     -0.64084    -0.10729    -1.24188
O     -1.39913    -1.82947     1.22913
 11
no_name:-6675.210920462142
Al     0.64973     2.12180     1.57709
Al     0.94943    -0.71101     0.88486
Al     1.39590    -1.44016    -1.82997
B      0.29015     0.89651    -1.58112
Ga    -0.17366    -2.96263    -0.18667
Ga    -1.06663     0.29975     2.38403
Ga    -2.19686    -0.88044     0.05912
B     -0.30814     0.82272     0.01280
B      0.59343     2.20402    -0.48992
B     -0.33462    -0.48666    -1.06549
O      0.91809     2.10566    -1.83530

