  7
no_name:-2004.59797560516
Li     0.73859     1.29450     1.66973
Li     0.50090     0.36762    -1.47720
S      1.43745    -0.65594     0.61138
S     -0.73337    -0.69520     0.44617
S     -1.04171     1.44360     0.17727
S     -1.11521    -1.51913    -1.35167
S     -1.61644    -1.40969     2.02732
