  8
no_name:-2402.556054702931
Li    -0.90649     1.04915     0.87988
Li     1.52974     0.13703    -0.77644
S      1.35897     0.71081     1.61304
S      0.81821    -1.64612     1.00581
S     -1.12433    -1.47364     0.24653
S     -0.82375    -0.70368    -1.72775
S     -0.38679     1.35076    -1.43182
S      2.12811     1.15655     3.38011
