  8
no_name:-2402.536596849877
Li     1.21483     1.98238     0.84642
Li     0.25705     0.98521    -2.02963
S      1.90837    -0.25971     0.59926
S     -0.49899    -0.50913     0.15864
S     -1.00536     1.54289     0.02036
S     -0.60357    -1.24592    -1.71333
S     -1.24464    -1.51010     1.63773
S      2.46501     1.05192    -0.89596
