  8
no_name:-2013.116555809167
Li    -0.70924    -0.32258     1.40742
Li     0.95748    -0.73319    -1.72742
S      1.42047    -1.00290     0.59397
S     -1.19028     1.20816    -1.09447
Li     1.22280     1.39947     0.18060
S     -0.29853    -1.86181    -0.21001
S     -0.99298     1.92553     0.79987
S      0.55990     1.55537    -2.07476
