  8
no_name:-1622.615666093197
Li     0.12626     0.45440     1.75898
Li    -1.16959    -0.83478    -0.18683
S      0.91357    -1.48317     0.55904
S     -1.44098     1.48477     0.40850
Li     1.96622     0.43978    -0.17270
Li    -0.18899     1.26386    -1.51247
S      0.71668    -0.96700    -1.50639
S      0.53989     2.28998     0.42444
