  7
no_name:-1224.494261559297
Li    -1.07702    -0.09099     1.14060
Li     0.14136    -1.62818    -0.41552
S      1.10117    -0.79179     1.60644
S     -0.84594     0.20437    -1.20345
Li     1.29319     0.59865    -0.26147
Li    -0.69005     2.07322    -0.02037
S      0.64359     1.28705     1.84888
