  9
no_name:-2020.707833910711
Li    -0.37086     0.19878     1.54823
Li    -1.42986    -1.33324    -0.86918
S      0.40199    -1.76034     0.51403
S     -1.63093     1.81048     0.53378
Li     1.76378     0.06462     0.04436
Li    -0.14713     0.92332    -1.72382
S      0.82423    -1.28489    -1.52721
S      0.44321     2.09004     0.29826
S     -2.38852     0.80882    -1.11600
