 10
no_name:-2418.800215162137
Li     0.14752     0.24564     1.82158
Li    -1.09643    -1.50249    -0.48607
S      0.72235    -1.83197     0.85972
S     -1.42119     1.79446     0.75714
Li     2.45911    -0.28766     0.40607
Li     0.14022     0.77335    -1.45101
S      1.16712    -1.33104    -1.17369
S      0.43552     2.58402     0.17475
S     -2.11556     0.60469    -0.78668
S      1.89103     1.77390     1.40118
