  6
no_name:-2124.863774599072
Ga     0.76286    -0.91307     0.59159
B      0.18613     0.40401    -0.74122
B     -1.01965    -0.69212    -0.74207
O     -2.08152    -1.30195    -1.25091
O     -3.33302    -1.03975    -0.59257
H     -3.91305    -1.61292    -1.11881
  6
no_name:-2124.863621797609
Ga     0.16299    -0.77419     0.46671
B     -0.91278     0.80772     0.04302
B     -1.66049     0.19096     1.35060
O     -2.45210     0.22714     2.41242
O     -3.72032    -0.44209     2.26900
H     -4.05835    -0.35002     3.17475
  6
no_name:-2124.771911007052
Ga     0.78870    -0.50515    -0.67149
B     -0.23752     1.35798    -1.21745
B     -0.54924     0.64138     0.19341
O     -1.25723     2.14969    -3.36241
O     -0.42296     2.32731    -2.15450
H     -0.02173     3.21169    -2.13757

