  9
no_name:-734.576882199897
B      0.87556     0.12379    -1.14539
B      0.40090     1.45989    -0.47865
B      0.12914    -1.25176    -1.18595
B     -0.59616     0.11685    -0.30607
Al    -1.32726     1.96617     0.53957
Al    -1.59056    -1.68295    -0.29039
O     -2.71595    -2.67486     0.63566
O     -3.48816    -2.04227    -0.46465
H     -4.11748    -1.45325    -0.01372
  9
no_name:-734.56897207315
B     -0.63531     0.42487    -0.36984
B      0.32827    -0.44267    -1.24408
B     -0.45743     0.88346     1.11326
B      0.85714    -0.03880     0.29950
Al     2.14549    -1.35319    -0.89813
Al     1.13693     0.53975     2.25738
O      3.16046     0.52992     4.08922
O      1.81050     0.81258     3.80146
H      3.23042     0.91412     4.97397
  9
no_name:-734.617494295545
B     -0.96720    -0.30959    -1.40395
B     -0.16913     0.98278    -1.06612
B     -1.41667    -1.35728    -0.30454
B     -0.53746    -0.00471     0.21037
Al     0.75338     2.07921     0.37598
Al     0.01639     0.29453     2.20036
O     -2.05219    -2.48809     0.01562
O     -2.05684    -2.81139     1.40882
H     -2.54250    -3.65039     1.38514
  9
no_name:-734.54391139706
B     -0.00067    -0.37640    -1.67634
B     -0.80795     0.89787    -1.19810
B      1.13522    -0.88898    -0.70165
B     -0.08503    -0.00531    -0.01952
Al    -0.04905     2.12816     0.28041
Al     1.87990     0.32751     0.79399
O      1.83609     2.04139    -0.07193
O      2.15664     2.03667    -1.45855
H      1.63513     1.28247    -1.81935

