 11
no_name:-5018.931111281246
Al     2.09212    -0.29130     1.53797
Ga     2.31992     1.28712    -0.46350
B     -0.58414    -0.21879     0.11057
Al     1.01022    -0.85465    -1.12072
Al    -0.00941    -1.90184     1.13447
B      0.15315     1.11029    -0.42038
Al    -0.08623     1.05595     1.73161
Ga     0.03480     3.25744    -1.37038
O      2.18545     2.92245    -1.47210
O      3.22870     3.76641    -1.89262
H      3.33153     3.51224    -2.82227
 11
no_name:-5018.853160382734
Al     2.17796    -0.61929    -0.13046
Ga     2.41166     1.96450    -1.42869
B     -0.77107     0.27508    -0.37562
Al     0.04701    -1.37255    -1.42370
Al    -0.12679    -1.10941     1.25582
B      0.61054     0.66928    -1.12202
Al     0.63429     1.40542     0.92238
Ga    -2.38658     1.19838     0.88449
O      2.36844     1.28605    -4.01220
O      3.04352     2.32590    -4.38369
H      3.32024     2.78411    -3.54265

