  6
no_name:-2292.232386536991
B     -0.29402    -0.42043    -0.20334
Ga    -0.38939     0.65967    -2.03996
B     -0.49031    -1.75105     0.55913
Al     0.12523     0.38085     1.55386
O     -0.63120    -2.93407     1.13277
H     -1.50464    -3.23637     1.39633
  6
no_name:-2292.2324731097
B      0.47934     1.79378    -0.32412
Ga    -0.89477    -1.17814    -1.54043
B     -0.25135     0.43319    -0.30383
Al     0.22606     0.34475     1.61118
O      1.09615     2.95818    -0.44238
H      0.59643     3.75999    -0.25427

