 10
no_name:-4943.943503166191
Al     2.09777     0.14466     0.50769
Ga     0.87778    -1.29482    -1.66786
B     -0.04721     0.54089     0.62900
Al    -1.33255     0.01754    -1.12555
Al     0.41512    -1.57430     1.21407
B      0.55927     0.99604    -0.79151
Al     1.80969     2.70356    -0.53522
Ga    -1.89695    -0.37857     1.44683
O      3.06816     1.71811     0.51807
H      3.89446     2.00456     0.92100
 10
no_name:-4943.89715789715
Al     1.43376    -0.68741     0.63775
Ga     2.89114    -0.69282    -1.74133
B     -0.79759     0.30573    -1.63740
Al    -1.04909    -1.30199    -0.27536
Al    -0.59661     0.76064     1.32782
B      0.63174    -0.34153    -1.33586
Al     0.83814     1.67819    -0.73298
Ga    -1.81130     1.79968    -0.79114
O     -3.29405     2.77670    -0.77533
H     -3.31604     3.47653    -0.11352

