 12
no_name:-6675.800087103426
Al     0.26418     1.28359     1.44163
Al    -0.55341    -1.71072     0.75235
Al     1.54156    -0.77889    -0.48959
B      0.15521     0.36287    -1.74679
Ga    -0.39279    -3.31903    -1.83067
Ga    -1.97306     0.15648     2.02757
Ga    -2.88340    -0.44177    -1.01287
B     -0.75452     0.36609    -0.29700
B      0.72098     1.24558    -0.57793
B     -0.60647    -0.99176    -1.40885
O     -1.00218    -3.39400     0.38410
H     -1.16077    -4.13047     0.98162
 12
no_name:-6675.806434764745
Al     0.91614     2.17660     2.04786
Al     1.69312    -0.35352     0.89312
Al     1.07868    -1.03896    -1.87060
B      0.88253     0.80880    -0.84569
Ga    -0.24584    -2.64771    -0.35507
Ga    -0.81446     0.08362     2.09675
Ga    -2.35078    -1.13769     0.31975
B     -0.16328     1.42451     0.27870
B      1.48908     1.85691     0.18542
B     -0.45516    -0.08905    -0.40156
O      1.11763     3.30714     3.29694
H      1.71937     4.05050     3.21869
 12
no_name:-6675.828263680409
Al    -0.52766     2.28399     1.97162
Al     1.24636    -0.25350     1.07928
Al     1.52631    -0.90797    -2.02212
B      0.72117     1.09467    -1.27796
Ga     0.15562    -2.60958    -0.17294
Ga    -1.12032    -0.28955     2.24356
Ga    -2.15833    -0.13592    -0.35307
B     -0.17789     1.25790     0.16564
B      0.67990     2.52499    -0.51103
B      0.01337    -0.24319    -0.70082
O      1.08412     3.79793    -0.38469
H      1.65378     4.12420    -1.09028

