 12
no_name:-8357.950315368067
B      0.16854    -0.69957    -1.55209
Ga    -0.56287     0.60282     1.36873
Ga     1.42614    -0.37596     2.92543
B      0.10179     0.70981    -0.67782
Ga    -2.40963    -1.02950     0.28539
Al    -0.05846    -2.17942    -0.00248
B     -1.26785    -0.00538    -1.13118
Al     1.83925    -0.31383    -0.24638
B      1.58713    -1.67237     1.28413
Ga    -1.67270    -2.00087    -2.51099
O     -4.14021    -1.35762     0.56019
H     -4.72491    -0.80784     0.02608
 12
no_name:-8358.018084730573
B     -0.32797    -0.15703     0.75341
Ga     0.22461     3.12655    -1.17458
Ga    -0.12253    -1.21449     4.21791
B      0.09480     1.22113    -0.14319
Ga    -2.26316    -0.96725     1.68015
Al     1.35253    -2.28713     1.00962
B     -1.25152     0.36019    -0.45350
Al     1.38230     0.77826     1.53928
B      0.22033    -0.88253     2.10671
Ga    -1.44776     1.26621    -2.32763
O      2.90689     1.41006     1.92128
H      3.55148     1.11007     2.56241
 12
no_name:-8358.007405104914
B     -1.19422    -0.89418     0.66957
Ga     0.92585     1.53697    -0.52569
Ga     3.12783     0.32152     2.74538
B     -0.04772    -0.99725    -0.53915
Ga    -3.63927    -0.46434     0.17417
Al     0.48286    -0.73061     1.73855
B     -1.59445    -0.51209    -0.83512
Al     2.03168    -1.30689    -0.46302
B      2.13078     0.25456     0.91596
Ga    -0.77771     0.23330    -2.74094
O      3.13040    -2.45834    -1.06180
H      2.99930    -3.10830    -1.75237

